84407
  -OEChem-01142521072D

 15 14  0     0  0  0  0  0  0999 V2000
    4.5981    0.0000    0.0000 Si  0  0  0  0  0  0  0  0  0  0  0  0
    2.8660   -0.0000    0.0000 Si  0  0  0  0  0  0  0  0  0  0  0  0
    3.7320   -0.5000    0.0000 O   0  0  0  0  0  0  0  0  0  0  0  0
    5.4641    0.5000    0.0000 C   0  0  0  0  0  0  0  0  0  0  0  0
    2.0000    0.5000    0.0000 C   0  0  0  0  0  0  0  0  0  0  0  0
    4.9081   -0.5369    0.0000 H   0  0  0  0  0  0  0  0  0  0  0  0
    4.2881    0.5369    0.0000 H   0  0  0  0  0  0  0  0  0  0  0  0
    2.5560   -0.5369    0.0000 H   0  0  0  0  0  0  0  0  0  0  0  0
    3.1760    0.5369    0.0000 H   0  0  0  0  0  0  0  0  0  0  0  0
    5.7741   -0.0369    0.0000 H   0  0  0  0  0  0  0  0  0  0  0  0
    6.0010    0.8100    0.0000 H   0  0  0  0  0  0  0  0  0  0  0  0
    5.1541    1.0369    0.0000 H   0  0  0  0  0  0  0  0  0  0  0  0
    2.3100    1.0369    0.0000 H   0  0  0  0  0  0  0  0  0  0  0  0
    1.4631    0.8100    0.0000 H   0  0  0  0  0  0  0  0  0  0  0  0
    1.6900   -0.0369    0.0000 H   0  0  0  0  0  0  0  0  0  0  0  0
  1  3  1  0  0  0  0
  1  4  1  0  0  0  0
  1  6  1  0  0  0  0
  1  7  1  0  0  0  0
  2  3  1  0  0  0  0
  2  5  1  0  0  0  0
  2  8  1  0  0  0  0
  2  9  1  0  0  0  0
  4 10  1  0  0  0  0
  4 11  1  0  0  0  0
  4 12  1  0  0  0  0
  5 13  1  0  0  0  0
  5 14  1  0  0  0  0
  5 15  1  0  0  0  0
M  END
> <PUBCHEM_COMPOUND_CID>
84407

> <PUBCHEM_COMPOUND_CANONICALIZED>
1

> <PUBCHEM_CACTVS_COMPLEXITY>
15.1

> <PUBCHEM_CACTVS_HBOND_ACCEPTOR>
1

> <PUBCHEM_CACTVS_HBOND_DONOR>
0

> <PUBCHEM_CACTVS_ROTATABLE_BOND>
2

> <PUBCHEM_CACTVS_SUBSKEYS>
AAADccBAIAwAAAAAAAAAAAAAAAAAAAAAAAAAAAAAAAAAAAAAAAAAEBAAAECAAAAAAABCAAAAAAAAAAAAAAAAAAAAAAAAAAAAAAAAAAAAAAAAAAAAAAAAAAAAAAAAAAAAAAAAAAAAAAAAAAAAAAAAAAAAAA==

> <PUBCHEM_IUPAC_OPENEYE_NAME>
methyl(methylsilyloxy)silane

> <PUBCHEM_IUPAC_CAS_NAME>
methyl(methylsilyloxy)silane

> <PUBCHEM_IUPAC_NAME_MARKUP>
methyl(methylsilyloxy)silane

> <PUBCHEM_IUPAC_NAME>
methyl(methylsilyloxy)silane

> <PUBCHEM_IUPAC_SYSTEMATIC_NAME>
methyl(methylsilyloxy)silane

> <PUBCHEM_IUPAC_TRADITIONAL_NAME>
methyl(methylsilyloxy)silane

> <PUBCHEM_IUPAC_INCHI>
InChI=1S/C2H10OSi2/c1-4-3-5-2/h4-5H2,1-2H3

> <PUBCHEM_IUPAC_INCHIKEY>
OFLMWACNYIOTNX-UHFFFAOYSA-N

> <PUBCHEM_EXACT_MASS>
106.02701801

> <PUBCHEM_MOLECULAR_FORMULA>
C2H10OSi2

> <PUBCHEM_MOLECULAR_WEIGHT>
106.27

> <PUBCHEM_SMILES>
C[SiH2]O[SiH2]C

> <PUBCHEM_OPENEYE_CAN_SMILES>
C[SiH2]O[SiH2]C

> <PUBCHEM_OPENEYE_ISO_SMILES>
C[SiH2]O[SiH2]C

> <PUBCHEM_CACTVS_TPSA>
9.2

> <PUBCHEM_MONOISOTOPIC_WEIGHT>
106.02701801

> <PUBCHEM_TOTAL_CHARGE>
0

> <PUBCHEM_HEAVY_ATOM_COUNT>
5

> <PUBCHEM_ATOM_DEF_STEREO_COUNT>
0

> <PUBCHEM_ATOM_UDEF_STEREO_COUNT>
0

> <PUBCHEM_BOND_DEF_STEREO_COUNT>
0

> <PUBCHEM_BOND_UDEF_STEREO_COUNT>
0

> <PUBCHEM_ISOTOPIC_ATOM_COUNT>
0

> <PUBCHEM_COMPONENT_COUNT>
1

> <PUBCHEM_CACTVS_TAUTO_COUNT>
-1

> <PUBCHEM_COORDINATE_TYPE>
1
5
255

$$$$
