17750370
  -OEChem-01152517462D

 28 28  0     1  0  0  0  0  0999 V2000
    3.7320   -0.5600    0.0000 N   0  0  3  0  0  0  0  0  0  0  0  0
    3.7320    1.4400    0.0000 N   0  0  0  0  0  0  0  0  0  0  0  0
    2.8660   -0.0600    0.0000 C   0  0  3  0  0  0  0  0  0  0  0  0
    4.5981   -0.0600    0.0000 C   0  0  0  0  0  0  0  0  0  0  0  0
    3.7320   -1.5600    0.0000 C   0  0  0  0  0  0  0  0  0  0  0  0
    2.8660    0.9400    0.0000 C   0  0  0  0  0  0  0  0  0  0  0  0
    4.5981    0.9400    0.0000 C   0  0  0  0  0  0  0  0  0  0  0  0
    2.0000   -0.5600    0.0000 C   0  0  0  0  0  0  0  0  0  0  0  0
    4.5981   -2.0600    0.0000 C   0  0  0  0  0  0  0  0  0  0  0  0
    2.8660   -2.0600    0.0000 C   0  0  0  0  0  0  0  0  0  0  0  0
    2.8660   -0.6800    0.0000 H   0  0  0  0  0  0  0  0  0  0  0  0
    4.8101   -0.6426    0.0000 H   0  0  0  0  0  0  0  0  0  0  0  0
    5.2087    0.0477    0.0000 H   0  0  0  0  0  0  0  0  0  0  0  0
    3.7320   -2.1800    0.0000 H   0  0  0  0  0  0  0  0  0  0  0  0
    2.6540    1.5226    0.0000 H   0  0  0  0  0  0  0  0  0  0  0  0
    2.2554    0.8323    0.0000 H   0  0  0  0  0  0  0  0  0  0  0  0
    5.2087    0.8323    0.0000 H   0  0  0  0  0  0  0  0  0  0  0  0
    4.8101    1.5226    0.0000 H   0  0  0  0  0  0  0  0  0  0  0  0
    3.7320    2.0600    0.0000 H   0  0  0  0  0  0  0  0  0  0  0  0
    1.6900   -0.0231    0.0000 H   0  0  0  0  0  0  0  0  0  0  0  0
    1.4631   -0.8700    0.0000 H   0  0  0  0  0  0  0  0  0  0  0  0
    2.3100   -1.0969    0.0000 H   0  0  0  0  0  0  0  0  0  0  0  0
    4.2881   -2.5969    0.0000 H   0  0  0  0  0  0  0  0  0  0  0  0
    5.1350   -2.3700    0.0000 H   0  0  0  0  0  0  0  0  0  0  0  0
    4.9081   -1.5231    0.0000 H   0  0  0  0  0  0  0  0  0  0  0  0
    2.5560   -1.5231    0.0000 H   0  0  0  0  0  0  0  0  0  0  0  0
    2.3291   -2.3700    0.0000 H   0  0  0  0  0  0  0  0  0  0  0  0
    3.1760   -2.5969    0.0000 H   0  0  0  0  0  0  0  0  0  0  0  0
  1  3  1  0  0  0  0
  1  4  1  0  0  0  0
  1  5  1  0  0  0  0
  2  6  1  0  0  0  0
  2  7  1  0  0  0  0
  2 19  1  0  0  0  0
  3  6  1  0  0  0  0
  3  8  1  0  0  0  0
  3 11  1  0  0  0  0
  4  7  1  0  0  0  0
  4 12  1  0  0  0  0
  4 13  1  0  0  0  0
  5  9  1  0  0  0  0
  5 10  1  0  0  0  0
  5 14  1  0  0  0  0
  6 15  1  0  0  0  0
  6 16  1  0  0  0  0
  7 17  1  0  0  0  0
  7 18  1  0  0  0  0
  8 20  1  0  0  0  0
  8 21  1  0  0  0  0
  8 22  1  0  0  0  0
  9 23  1  0  0  0  0
  9 24  1  0  0  0  0
  9 25  1  0  0  0  0
 10 26  1  0  0  0  0
 10 27  1  0  0  0  0
 10 28  1  0  0  0  0
M  END
> <PUBCHEM_COMPOUND_CID>
17750370

> <PUBCHEM_COMPOUND_CANONICALIZED>
1

> <PUBCHEM_CACTVS_COMPLEXITY>
101

> <PUBCHEM_CACTVS_HBOND_ACCEPTOR>
2

> <PUBCHEM_CACTVS_HBOND_DONOR>
1

> <PUBCHEM_CACTVS_ROTATABLE_BOND>
1

> <PUBCHEM_CACTVS_SUBSKEYS>
AAADceBzAAAAAAAAAAAAAAAAAAAAAAAAAAAsAAAAAAAAAAAAAAAAHAAQAAAACCjBAAQCAAPAAAAAAAAAAAAAAAAAAAAAAIAIAAAAQAAAAAAUAAAAEACAAAAAAAAAAAAAAAAAAAAAAAAAAAAAAAAAAAAAAA==

> <PUBCHEM_IUPAC_OPENEYE_NAME>
1-isopropyl-2-methyl-piperazine

> <PUBCHEM_IUPAC_CAS_NAME>
2-methyl-1-propan-2-ylpiperazine

> <PUBCHEM_IUPAC_NAME_MARKUP>
2-methyl-1-propan-2-ylpiperazine

> <PUBCHEM_IUPAC_NAME>
2-methyl-1-propan-2-ylpiperazine

> <PUBCHEM_IUPAC_SYSTEMATIC_NAME>
2-methyl-1-propan-2-yl-piperazine

> <PUBCHEM_IUPAC_TRADITIONAL_NAME>
1-isopropyl-2-methyl-piperazine

> <PUBCHEM_IUPAC_INCHI>
InChI=1S/C8H18N2/c1-7(2)10-5-4-9-6-8(10)3/h7-9H,4-6H2,1-3H3

> <PUBCHEM_IUPAC_INCHIKEY>
GGROKFCODOVWLX-UHFFFAOYSA-N

> <PUBCHEM_XLOGP3_AA>
0.8

> <PUBCHEM_EXACT_MASS>
142.146998583

> <PUBCHEM_MOLECULAR_FORMULA>
C8H18N2

> <PUBCHEM_MOLECULAR_WEIGHT>
142.24

> <PUBCHEM_SMILES>
CC1CNCCN1C(C)C

> <PUBCHEM_OPENEYE_CAN_SMILES>
CC1CNCCN1C(C)C

> <PUBCHEM_OPENEYE_ISO_SMILES>
CC1CNCCN1C(C)C

> <PUBCHEM_CACTVS_TPSA>
15.3

> <PUBCHEM_MONOISOTOPIC_WEIGHT>
142.146998583

> <PUBCHEM_TOTAL_CHARGE>
0

> <PUBCHEM_HEAVY_ATOM_COUNT>
10

> <PUBCHEM_ATOM_DEF_STEREO_COUNT>
0

> <PUBCHEM_ATOM_UDEF_STEREO_COUNT>
1

> <PUBCHEM_BOND_DEF_STEREO_COUNT>
0

> <PUBCHEM_BOND_UDEF_STEREO_COUNT>
0

> <PUBCHEM_ISOTOPIC_ATOM_COUNT>
0

> <PUBCHEM_COMPONENT_COUNT>
1

> <PUBCHEM_CACTVS_TAUTO_COUNT>
-1

> <PUBCHEM_COORDINATE_TYPE>
1
5
255

> <PUBCHEM_BONDANNOTATIONS>
3  8  3

$$$$
